/*--------------------------------*- C++ -*----------------------------------*\
| =========                 |                                                 |
| \\      /  F ield         | OpenFOAM: The Open Source CFD Toolbox           |
|  \\    /   O peration     | Version:  v1912                                 |
|   \\  /    A nd           | Website:  www.openfoam.com                      |
|    \\/     M anipulation  |                                                 |
\*---------------------------------------------------------------------------*/
FoamFile
{
    version     2.0;
    format      ascii;
    class       volScalarField;
    location    "0/solid";
    object      T;
}
// * * * * * * * * * * * * * * * * * * * * * * * * * * * * * * * * * * * * * //


dimensions       [0 0 0 1 0 0 0];

internalField   uniform 573.0 ;

boundaryField
{

     solid_inlet
    {
        type            zeroGradient;
    }
    solid_outlet
    {
        type            zeroGradient;
    }
    heater
    {
        type            fixedGradient;
	gradient        uniform -1960.8 ;      // -q/k_w = (0.04e+06 / 20.40 ) // check if it is +ve 
    }
    exterior
    {
        type            zeroGradient;
    }
    solid_to_fluid
    {

//        type            zeroGradient;
       type                solidWallMixedTemperatureCoupled; // solidWallMixedTemperatureCoupled
       Tnbr                       T;                                //
       K                          K;
       value                uniform 573.0 ;
    }
   

}



// ************************************************************************* //
